*SPEF "ieee 1481-1999"
*DESIGN "wb_interface"
*DATE "11:11:11 Fri 11 11, 1111"
*VENDOR "OpenRCX"
*PROGRAM "Parallel Extraction"
*VERSION "1.0"
*DESIGN_FLOW "NAME_SCOPE LOCAL" "PIN_CAP NONE"
*DIVIDER /
*DELIMITER :
*BUS_DELIMITER []
*T_UNIT 1 NS
*C_UNIT 1 PF
*R_UNIT 1 OHM
*L_UNIT 1 HENRY

*NAME_MAP
*1 addr0[0]
*2 addr0[1]
*3 addr0[2]
*4 addr0[3]
*5 addr0[4]
*6 addr0[5]
*7 addr0[6]
*8 addr0[7]
*9 addr0[8]
*10 clk0
*11 csb0
*12 din0[0]
*13 din0[10]
*14 din0[11]
*15 din0[12]
*16 din0[13]
*17 din0[14]
*18 din0[15]
*19 din0[16]
*20 din0[17]
*21 din0[18]
*22 din0[19]
*23 din0[1]
*24 din0[20]
*25 din0[21]
*26 din0[22]
*27 din0[23]
*28 din0[24]
*29 din0[25]
*30 din0[26]
*31 din0[27]
*32 din0[28]
*33 din0[29]
*34 din0[2]
*35 din0[30]
*36 din0[31]
*37 din0[3]
*38 din0[4]
*39 din0[5]
*40 din0[6]
*41 din0[7]
*42 din0[8]
*43 din0[9]
*44 net120
*45 processor_reset
*48 wb_clk_i
*49 wb_rst_i
*50 wbs_ack_o
*51 wbs_adr_i[0]
*52 wbs_adr_i[10]
*53 wbs_adr_i[11]
*54 wbs_adr_i[12]
*55 wbs_adr_i[13]
*56 wbs_adr_i[14]
*57 wbs_adr_i[15]
*58 wbs_adr_i[16]
*59 wbs_adr_i[17]
*60 wbs_adr_i[18]
*61 wbs_adr_i[19]
*62 wbs_adr_i[1]
*63 wbs_adr_i[20]
*64 wbs_adr_i[21]
*65 wbs_adr_i[22]
*66 wbs_adr_i[23]
*67 wbs_adr_i[24]
*68 wbs_adr_i[25]
*69 wbs_adr_i[26]
*70 wbs_adr_i[27]
*71 wbs_adr_i[28]
*72 wbs_adr_i[29]
*73 wbs_adr_i[2]
*74 wbs_adr_i[30]
*75 wbs_adr_i[31]
*76 wbs_adr_i[3]
*77 wbs_adr_i[4]
*78 wbs_adr_i[5]
*79 wbs_adr_i[6]
*80 wbs_adr_i[7]
*81 wbs_adr_i[8]
*82 wbs_adr_i[9]
*83 wbs_cyc_i
*84 wbs_dat_i[0]
*85 wbs_dat_i[10]
*86 wbs_dat_i[11]
*87 wbs_dat_i[12]
*88 wbs_dat_i[13]
*89 wbs_dat_i[14]
*90 wbs_dat_i[15]
*91 wbs_dat_i[16]
*92 wbs_dat_i[17]
*93 wbs_dat_i[18]
*94 wbs_dat_i[19]
*95 wbs_dat_i[1]
*96 wbs_dat_i[20]
*97 wbs_dat_i[21]
*98 wbs_dat_i[22]
*99 wbs_dat_i[23]
*100 wbs_dat_i[24]
*101 wbs_dat_i[25]
*102 wbs_dat_i[26]
*103 wbs_dat_i[27]
*104 wbs_dat_i[28]
*105 wbs_dat_i[29]
*106 wbs_dat_i[2]
*107 wbs_dat_i[30]
*108 wbs_dat_i[31]
*109 wbs_dat_i[3]
*110 wbs_dat_i[4]
*111 wbs_dat_i[5]
*112 wbs_dat_i[6]
*113 wbs_dat_i[7]
*114 wbs_dat_i[8]
*115 wbs_dat_i[9]
*116 wbs_sel_i[0]
*117 wbs_sel_i[1]
*118 wbs_sel_i[2]
*119 wbs_sel_i[3]
*120 wbs_stb_i
*121 wbs_we_i
*122 web0
*123 wmask0[0]
*124 wmask0[1]
*125 wmask0[2]
*126 wmask0[3]
*127 L0_ready_a1
*128 _00_
*129 _01_
*130 _02_
*131 _03_
*132 _04_
*133 _05_
*134 _06_
*135 _07_
*136 _08_
*137 _09_
*138 _10_
*139 _11_
*140 _12_
*141 clknet_0_wb_clk_i
*142 clknet_1_0__leaf_wb_clk_i
*143 clknet_1_1__leaf_wb_clk_i
*144 net1
*145 net10
*146 net100
*147 net101
*148 net102
*149 net103
*150 net104
*151 net105
*152 net106
*153 net107
*154 net108
*155 net109
*156 net11
*157 net110
*158 net111
*159 net112
*160 net113
*161 net114
*162 net115
*163 net116
*164 net117
*165 net118
*166 net119
*167 net12
*168 net13
*169 net14
*170 net15
*171 net16
*172 net17
*173 net18
*174 net19
*175 net2
*176 net20
*177 net21
*178 net22
*179 net23
*180 net24
*181 net25
*182 net26
*183 net27
*184 net28
*185 net29
*186 net3
*187 net30
*188 net31
*189 net32
*190 net33
*191 net34
*192 net35
*193 net36
*194 net37
*195 net38
*196 net39
*197 net4
*198 net40
*199 net41
*200 net42
*201 net43
*202 net44
*203 net45
*204 net46
*205 net47
*206 net48
*207 net49
*208 net5
*209 net50
*210 net51
*211 net52
*212 net53
*213 net54
*214 net55
*215 net56
*216 net57
*217 net58
*218 net59
*219 net6
*220 net60
*221 net61
*222 net62
*223 net63
*224 net64
*225 net65
*226 net66
*227 net67
*228 net68
*229 net69
*230 net7
*231 net70
*232 net71
*233 net72
*234 net73
*235 net74
*236 net75
*237 net76
*238 net77
*239 net78
*240 net79
*241 net8
*242 net80
*243 net81
*244 net82
*245 net83
*246 net84
*247 net85
*248 net86
*249 net87
*250 net88
*251 net89
*252 net9
*253 net90
*254 net91
*255 net92
*256 net93
*257 net94
*258 net95
*259 net96
*260 net97
*261 net98
*262 net99
*263 ANTENNA__25__A
*264 ANTENNA__25__B
*265 ANTENNA__27__A
*266 ANTENNA__27__B
*267 ANTENNA__29__A
*268 ANTENNA__29__B
*269 ANTENNA__31__A
*270 ANTENNA__31__B
*271 ANTENNA__33__A
*272 ANTENNA__36__A
*273 ANTENNA__37__A
*274 ANTENNA__38__A
*275 ANTENNA__39__A
*276 ANTENNA__40__A
*277 ANTENNA__41__A
*278 ANTENNA__42__A
*279 ANTENNA__43__A
*280 ANTENNA__44__A
*281 ANTENNA__47__A
*282 ANTENNA__48__A
*283 ANTENNA__49__A
*284 ANTENNA__50__A
*285 ANTENNA__51__A
*286 ANTENNA__52__A
*287 ANTENNA__53__A
*288 ANTENNA__54__A
*289 ANTENNA__55__A
*290 ANTENNA__56__A
*291 ANTENNA__57__A
*292 ANTENNA__58__A
*293 ANTENNA__59__A
*294 ANTENNA__61__A
*295 ANTENNA__62__A
*296 ANTENNA__63__A
*297 ANTENNA__64__A
*298 ANTENNA__65__A
*299 ANTENNA__66__A
*300 ANTENNA__67__A
*301 ANTENNA__68__A
*302 ANTENNA__69__A
*303 ANTENNA__70__A
*304 ANTENNA__71__A
*305 ANTENNA__72__A
*306 ANTENNA__73__A
*307 ANTENNA__74__A
*308 ANTENNA__75__A
*309 ANTENNA__76__A
*310 ANTENNA__77__A
*311 ANTENNA_clkbuf_0_wb_clk_i_A
*312 ANTENNA_input10_A
*313 ANTENNA_input11_A
*314 ANTENNA_input12_A
*315 ANTENNA_input13_A
*316 ANTENNA_input14_A
*317 ANTENNA_input15_A
*318 ANTENNA_input16_A
*319 ANTENNA_input17_A
*320 ANTENNA_input18_A
*321 ANTENNA_input19_A
*322 ANTENNA_input1_A
*323 ANTENNA_input20_A
*324 ANTENNA_input21_A
*325 ANTENNA_input22_A
*326 ANTENNA_input23_A
*327 ANTENNA_input24_A
*328 ANTENNA_input25_A
*329 ANTENNA_input26_A
*330 ANTENNA_input27_A
*331 ANTENNA_input28_A
*332 ANTENNA_input29_A
*333 ANTENNA_input2_A
*334 ANTENNA_input30_A
*335 ANTENNA_input31_A
*336 ANTENNA_input32_A
*337 ANTENNA_input33_A
*338 ANTENNA_input34_A
*339 ANTENNA_input35_A
*340 ANTENNA_input36_A
*341 ANTENNA_input37_A
*342 ANTENNA_input38_A
*343 ANTENNA_input39_A
*344 ANTENNA_input3_A
*345 ANTENNA_input40_A
*346 ANTENNA_input41_A
*347 ANTENNA_input42_A
*348 ANTENNA_input43_A
*349 ANTENNA_input44_A
*350 ANTENNA_input45_A
*351 ANTENNA_input46_A
*352 ANTENNA_input47_A
*353 ANTENNA_input48_A
*354 ANTENNA_input49_A
*355 ANTENNA_input4_A
*356 ANTENNA_input50_A
*357 ANTENNA_input51_A
*358 ANTENNA_input52_A
*359 ANTENNA_input53_A
*360 ANTENNA_input54_A
*361 ANTENNA_input55_A
*362 ANTENNA_input56_A
*363 ANTENNA_input57_A
*364 ANTENNA_input58_A
*365 ANTENNA_input59_A
*366 ANTENNA_input5_A
*367 ANTENNA_input60_A
*368 ANTENNA_input61_A
*369 ANTENNA_input62_A
*370 ANTENNA_input63_A
*371 ANTENNA_input64_A
*372 ANTENNA_input65_A
*373 ANTENNA_input66_A
*374 ANTENNA_input67_A
*375 ANTENNA_input68_A
*376 ANTENNA_input69_A
*377 ANTENNA_input6_A
*378 ANTENNA_input7_A
*379 ANTENNA_input8_A
*380 ANTENNA_input9_A
*381 ANTENNA_output100_A
*382 ANTENNA_output101_A
*383 ANTENNA_output102_A
*384 ANTENNA_output103_A
*385 ANTENNA_output105_A
*386 ANTENNA_output107_A
*387 ANTENNA_output108_A
*388 ANTENNA_output109_A
*389 ANTENNA_output110_A
*390 ANTENNA_output111_A
*391 ANTENNA_output112_A
*392 ANTENNA_output113_A
*393 ANTENNA_output70_A
*394 ANTENNA_output71_A
*395 ANTENNA_output72_A
*396 ANTENNA_output73_A
*397 ANTENNA_output74_A
*398 ANTENNA_output75_A
*399 ANTENNA_output76_A
*400 ANTENNA_output77_A
*401 ANTENNA_output78_A
*402 ANTENNA_output79_A
*403 ANTENNA_output80_A
*404 ANTENNA_output81_A
*405 ANTENNA_output82_A
*406 ANTENNA_output83_A
*407 ANTENNA_output85_A
*408 ANTENNA_output86_A
*409 ANTENNA_output87_A
*410 ANTENNA_output89_A
*411 ANTENNA_output91_A
*412 ANTENNA_output94_A
*413 ANTENNA_output96_A
*414 ANTENNA_output97_A
*415 ANTENNA_output98_A
*416 FILLER_0_109
*417 FILLER_0_113
*418 FILLER_0_125
*419 FILLER_0_137
*420 FILLER_0_141
*421 FILLER_0_15
*422 FILLER_0_153
*423 FILLER_0_165
*424 FILLER_0_169
*425 FILLER_0_181
*426 FILLER_0_193
*427 FILLER_0_197
*428 FILLER_0_209
*429 FILLER_0_221
*430 FILLER_0_225
*431 FILLER_0_237
*432 FILLER_0_249
*433 FILLER_0_253
*434 FILLER_0_265
*435 FILLER_0_27
*436 FILLER_0_277
*437 FILLER_0_281
*438 FILLER_0_29
*439 FILLER_0_293
*440 FILLER_0_3
*441 FILLER_0_305
*442 FILLER_0_309
*443 FILLER_0_321
*444 FILLER_0_333
*445 FILLER_0_337
*446 FILLER_0_349
*447 FILLER_0_361
*448 FILLER_0_365
*449 FILLER_0_377
*450 FILLER_0_389
*451 FILLER_0_393
*452 FILLER_0_405
*453 FILLER_0_41
*454 FILLER_0_53
*455 FILLER_0_57
*456 FILLER_0_69
*457 FILLER_0_81
*458 FILLER_0_85
*459 FILLER_0_97
*460 FILLER_10_109
*461 FILLER_10_12
*462 FILLER_10_121
*463 FILLER_10_133
*464 FILLER_10_139
*465 FILLER_10_141
*466 FILLER_10_153
*467 FILLER_10_165
*468 FILLER_10_177
*469 FILLER_10_18
*470 FILLER_10_189
*471 FILLER_10_192
*472 FILLER_10_197
*473 FILLER_10_206
*474 FILLER_10_215
*475 FILLER_10_222
*476 FILLER_10_234
*477 FILLER_10_246
*478 FILLER_10_253
*479 FILLER_10_26
*480 FILLER_10_265
*481 FILLER_10_277
*482 FILLER_10_289
*483 FILLER_10_29
*484 FILLER_10_301
*485 FILLER_10_307
*486 FILLER_10_309
*487 FILLER_10_321
*488 FILLER_10_333
*489 FILLER_10_345
*490 FILLER_10_357
*491 FILLER_10_363
*492 FILLER_10_365
*493 FILLER_10_377
*494 FILLER_10_389
*495 FILLER_10_397
*496 FILLER_10_403
*497 FILLER_10_41
*498 FILLER_10_53
*499 FILLER_10_6
*500 FILLER_10_65
*501 FILLER_10_77
*502 FILLER_10_83
*503 FILLER_10_85
*504 FILLER_10_97
*505 FILLER_11_105
*506 FILLER_11_111
*507 FILLER_11_113
*508 FILLER_11_125
*509 FILLER_11_137
*510 FILLER_11_149
*511 FILLER_11_16
*512 FILLER_11_161
*513 FILLER_11_167
*514 FILLER_11_169
*515 FILLER_11_181
*516 FILLER_11_193
*517 FILLER_11_197
*518 FILLER_11_206
*519 FILLER_11_215
*520 FILLER_11_223
*521 FILLER_11_225
*522 FILLER_11_237
*523 FILLER_11_249
*524 FILLER_11_261
*525 FILLER_11_273
*526 FILLER_11_279
*527 FILLER_11_28
*528 FILLER_11_281
*529 FILLER_11_293
*530 FILLER_11_305
*531 FILLER_11_317
*532 FILLER_11_329
*533 FILLER_11_335
*534 FILLER_11_337
*535 FILLER_11_349
*536 FILLER_11_361
*537 FILLER_11_373
*538 FILLER_11_385
*539 FILLER_11_391
*540 FILLER_11_393
*541 FILLER_11_40
*542 FILLER_11_403
*543 FILLER_11_52
*544 FILLER_11_57
*545 FILLER_11_6
*546 FILLER_11_69
*547 FILLER_11_81
*548 FILLER_11_93
*549 FILLER_12_109
*550 FILLER_12_12
*551 FILLER_12_121
*552 FILLER_12_133
*553 FILLER_12_139
*554 FILLER_12_141
*555 FILLER_12_153
*556 FILLER_12_165
*557 FILLER_12_177
*558 FILLER_12_18
*559 FILLER_12_189
*560 FILLER_12_195
*561 FILLER_12_199
*562 FILLER_12_207
*563 FILLER_12_210
*564 FILLER_12_216
*565 FILLER_12_228
*566 FILLER_12_240
*567 FILLER_12_253
*568 FILLER_12_26
*569 FILLER_12_265
*570 FILLER_12_277
*571 FILLER_12_289
*572 FILLER_12_29
*573 FILLER_12_301
*574 FILLER_12_307
*575 FILLER_12_309
*576 FILLER_12_321
*577 FILLER_12_333
*578 FILLER_12_345
*579 FILLER_12_357
*580 FILLER_12_363
*581 FILLER_12_365
*582 FILLER_12_377
*583 FILLER_12_389
*584 FILLER_12_395
*585 FILLER_12_403
*586 FILLER_12_41
*587 FILLER_12_53
*588 FILLER_12_6
*589 FILLER_12_65
*590 FILLER_12_77
*591 FILLER_12_83
*592 FILLER_12_85
*593 FILLER_12_97
*594 FILLER_13_105
*595 FILLER_13_111
*596 FILLER_13_113
*597 FILLER_13_12
*598 FILLER_13_125
*599 FILLER_13_137
*600 FILLER_13_149
*601 FILLER_13_161
*602 FILLER_13_167
*603 FILLER_13_169
*604 FILLER_13_181
*605 FILLER_13_193
*606 FILLER_13_201
*607 FILLER_13_205
*608 FILLER_13_211
*609 FILLER_13_223
*610 FILLER_13_225
*611 FILLER_13_237
*612 FILLER_13_24
*613 FILLER_13_249
*614 FILLER_13_261
*615 FILLER_13_273
*616 FILLER_13_279
*617 FILLER_13_281
*618 FILLER_13_293
*619 FILLER_13_305
*620 FILLER_13_317
*621 FILLER_13_329
*622 FILLER_13_335
*623 FILLER_13_337
*624 FILLER_13_349
*625 FILLER_13_36
*626 FILLER_13_361
*627 FILLER_13_373
*628 FILLER_13_385
*629 FILLER_13_391
*630 FILLER_13_393
*631 FILLER_13_403
*632 FILLER_13_48
*633 FILLER_13_57
*634 FILLER_13_6
*635 FILLER_13_69
*636 FILLER_13_81
*637 FILLER_13_93
*638 FILLER_14_109
*639 FILLER_14_121
*640 FILLER_14_13
*641 FILLER_14_133
*642 FILLER_14_139
*643 FILLER_14_141
*644 FILLER_14_153
*645 FILLER_14_165
*646 FILLER_14_177
*647 FILLER_14_189
*648 FILLER_14_19
*649 FILLER_14_195
*650 FILLER_14_197
*651 FILLER_14_201
*652 FILLER_14_205
*653 FILLER_14_211
*654 FILLER_14_223
*655 FILLER_14_235
*656 FILLER_14_247
*657 FILLER_14_251
*658 FILLER_14_253
*659 FILLER_14_265
*660 FILLER_14_27
*661 FILLER_14_277
*662 FILLER_14_289
*663 FILLER_14_29
*664 FILLER_14_301
*665 FILLER_14_307
*666 FILLER_14_309
*667 FILLER_14_321
*668 FILLER_14_333
*669 FILLER_14_345
*670 FILLER_14_357
*671 FILLER_14_363
*672 FILLER_14_365
*673 FILLER_14_377
*674 FILLER_14_389
*675 FILLER_14_401
*676 FILLER_14_41
*677 FILLER_14_53
*678 FILLER_14_65
*679 FILLER_14_77
*680 FILLER_14_83
*681 FILLER_14_85
*682 FILLER_14_97
*683 FILLER_15_105
*684 FILLER_15_111
*685 FILLER_15_113
*686 FILLER_15_125
*687 FILLER_15_13
*688 FILLER_15_137
*689 FILLER_15_149
*690 FILLER_15_161
*691 FILLER_15_167
*692 FILLER_15_169
*693 FILLER_15_181
*694 FILLER_15_19
*695 FILLER_15_193
*696 FILLER_15_205
*697 FILLER_15_217
*698 FILLER_15_223
*699 FILLER_15_225
*700 FILLER_15_237
*701 FILLER_15_249
*702 FILLER_15_261
*703 FILLER_15_273
*704 FILLER_15_279
*705 FILLER_15_281
*706 FILLER_15_293
*707 FILLER_15_305
*708 FILLER_15_31
*709 FILLER_15_317
*710 FILLER_15_329
*711 FILLER_15_335
*712 FILLER_15_337
*713 FILLER_15_349
*714 FILLER_15_361
*715 FILLER_15_373
*716 FILLER_15_385
*717 FILLER_15_391
*718 FILLER_15_395
*719 FILLER_15_403
*720 FILLER_15_43
*721 FILLER_15_55
*722 FILLER_15_57
*723 FILLER_15_6
*724 FILLER_15_69
*725 FILLER_15_81
*726 FILLER_15_93
*727 FILLER_16_109
*728 FILLER_16_12
*729 FILLER_16_121
*730 FILLER_16_133
*731 FILLER_16_139
*732 FILLER_16_141
*733 FILLER_16_153
*734 FILLER_16_165
*735 FILLER_16_177
*736 FILLER_16_18
*737 FILLER_16_189
*738 FILLER_16_195
*739 FILLER_16_197
*740 FILLER_16_206
*741 FILLER_16_212
*742 FILLER_16_224
*743 FILLER_16_236
*744 FILLER_16_248
*745 FILLER_16_253
*746 FILLER_16_26
*747 FILLER_16_265
*748 FILLER_16_277
*749 FILLER_16_289
*750 FILLER_16_29
*751 FILLER_16_301
*752 FILLER_16_307
*753 FILLER_16_309
*754 FILLER_16_321
*755 FILLER_16_333
*756 FILLER_16_345
*757 FILLER_16_357
*758 FILLER_16_363
*759 FILLER_16_365
*760 FILLER_16_377
*761 FILLER_16_389
*762 FILLER_16_397
*763 FILLER_16_403
*764 FILLER_16_41
*765 FILLER_16_53
*766 FILLER_16_6
*767 FILLER_16_65
*768 FILLER_16_77
*769 FILLER_16_83
*770 FILLER_16_85
*771 FILLER_16_97
*772 FILLER_17_105
*773 FILLER_17_111
*774 FILLER_17_113
*775 FILLER_17_125
*776 FILLER_17_13
*777 FILLER_17_137
*778 FILLER_17_149
*779 FILLER_17_161
*780 FILLER_17_167
*781 FILLER_17_169
*782 FILLER_17_181
*783 FILLER_17_19
*784 FILLER_17_193
*785 FILLER_17_205
*786 FILLER_17_217
*787 FILLER_17_223
*788 FILLER_17_225
*789 FILLER_17_237
*790 FILLER_17_249
*791 FILLER_17_261
*792 FILLER_17_273
*793 FILLER_17_279
*794 FILLER_17_281
*795 FILLER_17_293
*796 FILLER_17_305
*797 FILLER_17_31
*798 FILLER_17_317
*799 FILLER_17_329
*800 FILLER_17_335
*801 FILLER_17_337
*802 FILLER_17_349
*803 FILLER_17_361
*804 FILLER_17_373
*805 FILLER_17_385
*806 FILLER_17_391
*807 FILLER_17_395
*808 FILLER_17_403
*809 FILLER_17_43
*810 FILLER_17_55
*811 FILLER_17_57
*812 FILLER_17_69
*813 FILLER_17_81
*814 FILLER_17_93
*815 FILLER_18_109
*816 FILLER_18_12
*817 FILLER_18_121
*818 FILLER_18_133
*819 FILLER_18_139
*820 FILLER_18_141
*821 FILLER_18_153
*822 FILLER_18_165
*823 FILLER_18_177
*824 FILLER_18_18
*825 FILLER_18_189
*826 FILLER_18_195
*827 FILLER_18_197
*828 FILLER_18_206
*829 FILLER_18_212
*830 FILLER_18_224
*831 FILLER_18_236
*832 FILLER_18_248
*833 FILLER_18_253
*834 FILLER_18_26
*835 FILLER_18_265
*836 FILLER_18_277
*837 FILLER_18_289
*838 FILLER_18_29
*839 FILLER_18_301
*840 FILLER_18_307
*841 FILLER_18_309
*842 FILLER_18_321
*843 FILLER_18_333
*844 FILLER_18_345
*845 FILLER_18_357
*846 FILLER_18_363
*847 FILLER_18_365
*848 FILLER_18_377
*849 FILLER_18_389
*850 FILLER_18_395
*851 FILLER_18_403
*852 FILLER_18_41
*853 FILLER_18_53
*854 FILLER_18_6
*855 FILLER_18_65
*856 FILLER_18_77
*857 FILLER_18_83
*858 FILLER_18_85
*859 FILLER_18_97
*860 FILLER_19_105
*861 FILLER_19_111
*862 FILLER_19_113
*863 FILLER_19_125
*864 FILLER_19_13
*865 FILLER_19_137
*866 FILLER_19_149
*867 FILLER_19_161
*868 FILLER_19_167
*869 FILLER_19_169
*870 FILLER_19_181
*871 FILLER_19_19
*872 FILLER_19_193
*873 FILLER_19_201
*874 FILLER_19_206
*875 FILLER_19_212
*876 FILLER_19_225
*877 FILLER_19_237
*878 FILLER_19_249
*879 FILLER_19_261
*880 FILLER_19_273
*881 FILLER_19_279
*882 FILLER_19_281
*883 FILLER_19_293
*884 FILLER_19_305
*885 FILLER_19_31
*886 FILLER_19_317
*887 FILLER_19_329
*888 FILLER_19_335
*889 FILLER_19_337
*890 FILLER_19_349
*891 FILLER_19_361
*892 FILLER_19_373
*893 FILLER_19_385
*894 FILLER_19_391
*895 FILLER_19_393
*896 FILLER_19_405
*897 FILLER_19_43
*898 FILLER_19_55
*899 FILLER_19_57
*900 FILLER_19_69
*901 FILLER_19_81
*902 FILLER_19_93
*903 FILLER_1_105
*904 FILLER_1_111
*905 FILLER_1_113
*906 FILLER_1_125
*907 FILLER_1_137
*908 FILLER_1_149
*909 FILLER_1_15
*910 FILLER_1_161
*911 FILLER_1_167
*912 FILLER_1_169
*913 FILLER_1_181
*914 FILLER_1_193
*915 FILLER_1_205
*916 FILLER_1_217
*917 FILLER_1_223
*918 FILLER_1_225
*919 FILLER_1_237
*920 FILLER_1_249
*921 FILLER_1_261
*922 FILLER_1_273
*923 FILLER_1_279
*924 FILLER_1_281
*925 FILLER_1_293
*926 FILLER_1_3
*927 FILLER_1_305
*928 FILLER_1_317
*929 FILLER_1_329
*930 FILLER_1_335
*931 FILLER_1_337
*932 FILLER_1_349
*933 FILLER_1_36
*934 FILLER_1_361
*935 FILLER_1_373
*936 FILLER_1_385
*937 FILLER_1_391
*938 FILLER_1_393
*939 FILLER_1_405
*940 FILLER_1_48
*941 FILLER_1_57
*942 FILLER_1_69
*943 FILLER_1_81
*944 FILLER_1_93
*945 FILLER_20_109
*946 FILLER_20_121
*947 FILLER_20_13
*948 FILLER_20_133
*949 FILLER_20_139
*950 FILLER_20_141
*951 FILLER_20_153
*952 FILLER_20_165
*953 FILLER_20_177
*954 FILLER_20_189
*955 FILLER_20_195
*956 FILLER_20_197
*957 FILLER_20_20
*958 FILLER_20_209
*959 FILLER_20_221
*960 FILLER_20_233
*961 FILLER_20_245
*962 FILLER_20_251
*963 FILLER_20_253
*964 FILLER_20_265
*965 FILLER_20_277
*966 FILLER_20_289
*967 FILLER_20_29
*968 FILLER_20_301
*969 FILLER_20_307
*970 FILLER_20_309
*971 FILLER_20_321
*972 FILLER_20_333
*973 FILLER_20_345
*974 FILLER_20_357
*975 FILLER_20_363
*976 FILLER_20_365
*977 FILLER_20_377
*978 FILLER_20_389
*979 FILLER_20_395
*980 FILLER_20_403
*981 FILLER_20_41
*982 FILLER_20_53
*983 FILLER_20_65
*984 FILLER_20_77
*985 FILLER_20_83
*986 FILLER_20_85
*987 FILLER_20_97
*988 FILLER_21_105
*989 FILLER_21_111
*990 FILLER_21_113
*991 FILLER_21_125
*992 FILLER_21_13
*993 FILLER_21_137
*994 FILLER_21_149
*995 FILLER_21_161
*996 FILLER_21_167
*997 FILLER_21_169
*998 FILLER_21_181
*999 FILLER_21_19
*1000 FILLER_21_193
*1001 FILLER_21_208
*1002 FILLER_21_214
*1003 FILLER_21_222
*1004 FILLER_21_225
*1005 FILLER_21_237
*1006 FILLER_21_249
*1007 FILLER_21_25
*1008 FILLER_21_261
*1009 FILLER_21_273
*1010 FILLER_21_279
*1011 FILLER_21_281
*1012 FILLER_21_293
*1013 FILLER_21_305
*1014 FILLER_21_317
*1015 FILLER_21_329
*1016 FILLER_21_335
*1017 FILLER_21_337
*1018 FILLER_21_349
*1019 FILLER_21_361
*1020 FILLER_21_37
*1021 FILLER_21_373
*1022 FILLER_21_385
*1023 FILLER_21_391
*1024 FILLER_21_395
*1025 FILLER_21_403
*1026 FILLER_21_49
*1027 FILLER_21_55
*1028 FILLER_21_57
*1029 FILLER_21_6
*1030 FILLER_21_69
*1031 FILLER_21_81
*1032 FILLER_21_93
*1033 FILLER_22_109
*1034 FILLER_22_12
*1035 FILLER_22_121
*1036 FILLER_22_133
*1037 FILLER_22_139
*1038 FILLER_22_141
*1039 FILLER_22_153
*1040 FILLER_22_165
*1041 FILLER_22_177
*1042 FILLER_22_18
*1043 FILLER_22_189
*1044 FILLER_22_195
*1045 FILLER_22_197
*1046 FILLER_22_208
*1047 FILLER_22_214
*1048 FILLER_22_226
*1049 FILLER_22_238
*1050 FILLER_22_250
*1051 FILLER_22_253
*1052 FILLER_22_26
*1053 FILLER_22_265
*1054 FILLER_22_277
*1055 FILLER_22_289
*1056 FILLER_22_29
*1057 FILLER_22_301
*1058 FILLER_22_307
*1059 FILLER_22_309
*1060 FILLER_22_321
*1061 FILLER_22_333
*1062 FILLER_22_345
*1063 FILLER_22_357
*1064 FILLER_22_363
*1065 FILLER_22_365
*1066 FILLER_22_377
*1067 FILLER_22_389
*1068 FILLER_22_395
*1069 FILLER_22_403
*1070 FILLER_22_41
*1071 FILLER_22_53
*1072 FILLER_22_6
*1073 FILLER_22_65
*1074 FILLER_22_77
*1075 FILLER_22_83
*1076 FILLER_22_85
*1077 FILLER_22_97
*1078 FILLER_23_105
*1079 FILLER_23_111
*1080 FILLER_23_113
*1081 FILLER_23_125
*1082 FILLER_23_13
*1083 FILLER_23_137
*1084 FILLER_23_149
*1085 FILLER_23_161
*1086 FILLER_23_167
*1087 FILLER_23_169
*1088 FILLER_23_181
*1089 FILLER_23_19
*1090 FILLER_23_193
*1091 FILLER_23_208
*1092 FILLER_23_214
*1093 FILLER_23_222
*1094 FILLER_23_225
*1095 FILLER_23_237
*1096 FILLER_23_249
*1097 FILLER_23_261
*1098 FILLER_23_273
*1099 FILLER_23_279
*1100 FILLER_23_281
*1101 FILLER_23_293
*1102 FILLER_23_305
*1103 FILLER_23_31
*1104 FILLER_23_317
*1105 FILLER_23_329
*1106 FILLER_23_335
*1107 FILLER_23_337
*1108 FILLER_23_349
*1109 FILLER_23_361
*1110 FILLER_23_373
*1111 FILLER_23_385
*1112 FILLER_23_391
*1113 FILLER_23_395
*1114 FILLER_23_403
*1115 FILLER_23_43
*1116 FILLER_23_55
*1117 FILLER_23_57
*1118 FILLER_23_6
*1119 FILLER_23_69
*1120 FILLER_23_81
*1121 FILLER_23_93
*1122 FILLER_24_109
*1123 FILLER_24_12
*1124 FILLER_24_121
*1125 FILLER_24_133
*1126 FILLER_24_139
*1127 FILLER_24_141
*1128 FILLER_24_153
*1129 FILLER_24_165
*1130 FILLER_24_177
*1131 FILLER_24_18
*1132 FILLER_24_189
*1133 FILLER_24_195
*1134 FILLER_24_197
*1135 FILLER_24_209
*1136 FILLER_24_221
*1137 FILLER_24_233
*1138 FILLER_24_245
*1139 FILLER_24_251
*1140 FILLER_24_253
*1141 FILLER_24_26
*1142 FILLER_24_265
*1143 FILLER_24_277
*1144 FILLER_24_289
*1145 FILLER_24_29
*1146 FILLER_24_301
*1147 FILLER_24_307
*1148 FILLER_24_309
*1149 FILLER_24_321
*1150 FILLER_24_333
*1151 FILLER_24_345
*1152 FILLER_24_357
*1153 FILLER_24_363
*1154 FILLER_24_365
*1155 FILLER_24_377
*1156 FILLER_24_389
*1157 FILLER_24_401
*1158 FILLER_24_41
*1159 FILLER_24_53
*1160 FILLER_24_6
*1161 FILLER_24_65
*1162 FILLER_24_77
*1163 FILLER_24_83
*1164 FILLER_24_85
*1165 FILLER_24_97
*1166 FILLER_25_105
*1167 FILLER_25_111
*1168 FILLER_25_113
*1169 FILLER_25_12
*1170 FILLER_25_125
*1171 FILLER_25_137
*1172 FILLER_25_149
*1173 FILLER_25_161
*1174 FILLER_25_167
*1175 FILLER_25_169
*1176 FILLER_25_181
*1177 FILLER_25_193
*1178 FILLER_25_199
*1179 FILLER_25_206
*1180 FILLER_25_212
*1181 FILLER_25_225
*1182 FILLER_25_237
*1183 FILLER_25_24
*1184 FILLER_25_249
*1185 FILLER_25_261
*1186 FILLER_25_273
*1187 FILLER_25_279
*1188 FILLER_25_281
*1189 FILLER_25_293
*1190 FILLER_25_305
*1191 FILLER_25_317
*1192 FILLER_25_329
*1193 FILLER_25_335
*1194 FILLER_25_337
*1195 FILLER_25_349
*1196 FILLER_25_36
*1197 FILLER_25_361
*1198 FILLER_25_373
*1199 FILLER_25_385
*1200 FILLER_25_391
*1201 FILLER_25_395
*1202 FILLER_25_403
*1203 FILLER_25_48
*1204 FILLER_25_57
*1205 FILLER_25_6
*1206 FILLER_25_69
*1207 FILLER_25_81
*1208 FILLER_25_93
*1209 FILLER_26_109
*1210 FILLER_26_121
*1211 FILLER_26_13
*1212 FILLER_26_133
*1213 FILLER_26_139
*1214 FILLER_26_141
*1215 FILLER_26_153
*1216 FILLER_26_165
*1217 FILLER_26_177
*1218 FILLER_26_189
*1219 FILLER_26_19
*1220 FILLER_26_195
*1221 FILLER_26_197
*1222 FILLER_26_202
*1223 FILLER_26_209
*1224 FILLER_26_215
*1225 FILLER_26_227
*1226 FILLER_26_239
*1227 FILLER_26_251
*1228 FILLER_26_253
*1229 FILLER_26_265
*1230 FILLER_26_27
*1231 FILLER_26_277
*1232 FILLER_26_289
*1233 FILLER_26_29
*1234 FILLER_26_301
*1235 FILLER_26_307
*1236 FILLER_26_309
*1237 FILLER_26_321
*1238 FILLER_26_333
*1239 FILLER_26_345
*1240 FILLER_26_357
*1241 FILLER_26_363
*1242 FILLER_26_365
*1243 FILLER_26_377
*1244 FILLER_26_389
*1245 FILLER_26_395
*1246 FILLER_26_403
*1247 FILLER_26_41
*1248 FILLER_26_53
*1249 FILLER_26_6
*1250 FILLER_26_65
*1251 FILLER_26_77
*1252 FILLER_26_83
*1253 FILLER_26_85
*1254 FILLER_26_97
*1255 FILLER_27_105
*1256 FILLER_27_111
*1257 FILLER_27_113
*1258 FILLER_27_12
*1259 FILLER_27_125
*1260 FILLER_27_137
*1261 FILLER_27_149
*1262 FILLER_27_161
*1263 FILLER_27_167
*1264 FILLER_27_169
*1265 FILLER_27_18
*1266 FILLER_27_181
*1267 FILLER_27_193
*1268 FILLER_27_196
*1269 FILLER_27_204
*1270 FILLER_27_212
*1271 FILLER_27_218
*1272 FILLER_27_225
*1273 FILLER_27_237
*1274 FILLER_27_249
*1275 FILLER_27_261
*1276 FILLER_27_273
*1277 FILLER_27_279
*1278 FILLER_27_281
*1279 FILLER_27_293
*1280 FILLER_27_30
*1281 FILLER_27_305
*1282 FILLER_27_317
*1283 FILLER_27_329
*1284 FILLER_27_335
*1285 FILLER_27_337
*1286 FILLER_27_349
*1287 FILLER_27_361
*1288 FILLER_27_373
*1289 FILLER_27_385
*1290 FILLER_27_391
*1291 FILLER_27_393
*1292 FILLER_27_403
*1293 FILLER_27_42
*1294 FILLER_27_54
*1295 FILLER_27_57
*1296 FILLER_27_6
*1297 FILLER_27_69
*1298 FILLER_27_81
*1299 FILLER_27_93
*1300 FILLER_28_109
*1301 FILLER_28_12
*1302 FILLER_28_121
*1303 FILLER_28_133
*1304 FILLER_28_139
*1305 FILLER_28_141
*1306 FILLER_28_153
*1307 FILLER_28_165
*1308 FILLER_28_177
*1309 FILLER_28_189
*1310 FILLER_28_192
*1311 FILLER_28_197
*1312 FILLER_28_205
*1313 FILLER_28_212
*1314 FILLER_28_218
*1315 FILLER_28_230
*1316 FILLER_28_24
*1317 FILLER_28_242
*1318 FILLER_28_250
*1319 FILLER_28_253
*1320 FILLER_28_265
*1321 FILLER_28_277
*1322 FILLER_28_289
*1323 FILLER_28_29
*1324 FILLER_28_301
*1325 FILLER_28_307
*1326 FILLER_28_309
*1327 FILLER_28_321
*1328 FILLER_28_333
*1329 FILLER_28_345
*1330 FILLER_28_357
*1331 FILLER_28_363
*1332 FILLER_28_365
*1333 FILLER_28_377
*1334 FILLER_28_389
*1335 FILLER_28_395
*1336 FILLER_28_403
*1337 FILLER_28_41
*1338 FILLER_28_53
*1339 FILLER_28_6
*1340 FILLER_28_65
*1341 FILLER_28_77
*1342 FILLER_28_83
*1343 FILLER_28_85
*1344 FILLER_28_97
*1345 FILLER_29_105
*1346 FILLER_29_111
*1347 FILLER_29_113
*1348 FILLER_29_125
*1349 FILLER_29_13
*1350 FILLER_29_137
*1351 FILLER_29_149
*1352 FILLER_29_161
*1353 FILLER_29_167
*1354 FILLER_29_169
*1355 FILLER_29_181
*1356 FILLER_29_19
*1357 FILLER_29_193
*1358 FILLER_29_201
*1359 FILLER_29_213
*1360 FILLER_29_221
*1361 FILLER_29_225
*1362 FILLER_29_237
*1363 FILLER_29_249
*1364 FILLER_29_261
*1365 FILLER_29_273
*1366 FILLER_29_279
*1367 FILLER_29_281
*1368 FILLER_29_293
*1369 FILLER_29_305
*1370 FILLER_29_31
*1371 FILLER_29_317
*1372 FILLER_29_329
*1373 FILLER_29_335
*1374 FILLER_29_337
*1375 FILLER_29_349
*1376 FILLER_29_361
*1377 FILLER_29_373
*1378 FILLER_29_385
*1379 FILLER_29_391
*1380 FILLER_29_393
*1381 FILLER_29_405
*1382 FILLER_29_43
*1383 FILLER_29_55
*1384 FILLER_29_57
*1385 FILLER_29_6
*1386 FILLER_29_69
*1387 FILLER_29_81
*1388 FILLER_29_93
*1389 FILLER_2_109
*1390 FILLER_2_11
*1391 FILLER_2_121
*1392 FILLER_2_133
*1393 FILLER_2_139
*1394 FILLER_2_141
*1395 FILLER_2_153
*1396 FILLER_2_165
*1397 FILLER_2_177
*1398 FILLER_2_189
*1399 FILLER_2_195
*1400 FILLER_2_197
*1401 FILLER_2_209
*1402 FILLER_2_221
*1403 FILLER_2_23
*1404 FILLER_2_233
*1405 FILLER_2_245
*1406 FILLER_2_251
*1407 FILLER_2_253
*1408 FILLER_2_265
*1409 FILLER_2_27
*1410 FILLER_2_277
*1411 FILLER_2_289
*1412 FILLER_2_29
*1413 FILLER_2_3
*1414 FILLER_2_301
*1415 FILLER_2_307
*1416 FILLER_2_309
*1417 FILLER_2_321
*1418 FILLER_2_333
*1419 FILLER_2_345
*1420 FILLER_2_357
*1421 FILLER_2_363
*1422 FILLER_2_365
*1423 FILLER_2_377
*1424 FILLER_2_389
*1425 FILLER_2_397
*1426 FILLER_2_403
*1427 FILLER_2_41
*1428 FILLER_2_53
*1429 FILLER_2_65
*1430 FILLER_2_77
*1431 FILLER_2_83
*1432 FILLER_2_85
*1433 FILLER_2_97
*1434 FILLER_30_10
*1435 FILLER_30_109
*1436 FILLER_30_121
*1437 FILLER_30_133
*1438 FILLER_30_139
*1439 FILLER_30_141
*1440 FILLER_30_153
*1441 FILLER_30_16
*1442 FILLER_30_165
*1443 FILLER_30_177
*1444 FILLER_30_189
*1445 FILLER_30_195
*1446 FILLER_30_197
*1447 FILLER_30_205
*1448 FILLER_30_211
*1449 FILLER_30_217
*1450 FILLER_30_229
*1451 FILLER_30_241
*1452 FILLER_30_249
*1453 FILLER_30_253
*1454 FILLER_30_265
*1455 FILLER_30_277
*1456 FILLER_30_289
*1457 FILLER_30_29
*1458 FILLER_30_3
*1459 FILLER_30_301
*1460 FILLER_30_307
*1461 FILLER_30_309
*1462 FILLER_30_321
*1463 FILLER_30_333
*1464 FILLER_30_345
*1465 FILLER_30_357
*1466 FILLER_30_363
*1467 FILLER_30_365
*1468 FILLER_30_377
*1469 FILLER_30_389
*1470 FILLER_30_395
*1471 FILLER_30_403
*1472 FILLER_30_41
*1473 FILLER_30_53
*1474 FILLER_30_65
*1475 FILLER_30_77
*1476 FILLER_30_83
*1477 FILLER_30_85
*1478 FILLER_30_97
*1479 FILLER_31_105
*1480 FILLER_31_111
*1481 FILLER_31_113
*1482 FILLER_31_125
*1483 FILLER_31_13
*1484 FILLER_31_137
*1485 FILLER_31_149
*1486 FILLER_31_161
*1487 FILLER_31_167
*1488 FILLER_31_169
*1489 FILLER_31_181
*1490 FILLER_31_184
*1491 FILLER_31_19
*1492 FILLER_31_190
*1493 FILLER_31_197
*1494 FILLER_31_205
*1495 FILLER_31_213
*1496 FILLER_31_220
*1497 FILLER_31_225
*1498 FILLER_31_237
*1499 FILLER_31_249
*1500 FILLER_31_25
*1501 FILLER_31_261
*1502 FILLER_31_273
*1503 FILLER_31_279
*1504 FILLER_31_281
*1505 FILLER_31_293
*1506 FILLER_31_305
*1507 FILLER_31_317
*1508 FILLER_31_329
*1509 FILLER_31_335
*1510 FILLER_31_337
*1511 FILLER_31_349
*1512 FILLER_31_361
*1513 FILLER_31_37
*1514 FILLER_31_373
*1515 FILLER_31_385
*1516 FILLER_31_391
*1517 FILLER_31_395
*1518 FILLER_31_403
*1519 FILLER_31_49
*1520 FILLER_31_55
*1521 FILLER_31_57
*1522 FILLER_31_6
*1523 FILLER_31_69
*1524 FILLER_31_81
*1525 FILLER_31_93
*1526 FILLER_32_109
*1527 FILLER_32_121
*1528 FILLER_32_133
*1529 FILLER_32_139
*1530 FILLER_32_14
*1531 FILLER_32_141
*1532 FILLER_32_153
*1533 FILLER_32_165
*1534 FILLER_32_177
*1535 FILLER_32_189
*1536 FILLER_32_192
*1537 FILLER_32_197
*1538 FILLER_32_205
*1539 FILLER_32_21
*1540 FILLER_32_213
*1541 FILLER_32_219
*1542 FILLER_32_231
*1543 FILLER_32_243
*1544 FILLER_32_251
*1545 FILLER_32_253
*1546 FILLER_32_265
*1547 FILLER_32_27
*1548 FILLER_32_277
*1549 FILLER_32_289
*1550 FILLER_32_29
*1551 FILLER_32_3
*1552 FILLER_32_301
*1553 FILLER_32_307
*1554 FILLER_32_309
*1555 FILLER_32_321
*1556 FILLER_32_333
*1557 FILLER_32_345
*1558 FILLER_32_357
*1559 FILLER_32_363
*1560 FILLER_32_365
*1561 FILLER_32_377
*1562 FILLER_32_389
*1563 FILLER_32_397
*1564 FILLER_32_403
*1565 FILLER_32_41
*1566 FILLER_32_53
*1567 FILLER_32_65
*1568 FILLER_32_7
*1569 FILLER_32_77
*1570 FILLER_32_83
*1571 FILLER_32_85
*1572 FILLER_32_97
*1573 FILLER_33_105
*1574 FILLER_33_111
*1575 FILLER_33_113
*1576 FILLER_33_12
*1577 FILLER_33_125
*1578 FILLER_33_137
*1579 FILLER_33_149
*1580 FILLER_33_161
*1581 FILLER_33_167
*1582 FILLER_33_169
*1583 FILLER_33_181
*1584 FILLER_33_19
*1585 FILLER_33_193
*1586 FILLER_33_197
*1587 FILLER_33_205
*1588 FILLER_33_212
*1589 FILLER_33_218
*1590 FILLER_33_225
*1591 FILLER_33_237
*1592 FILLER_33_249
*1593 FILLER_33_25
*1594 FILLER_33_261
*1595 FILLER_33_273
*1596 FILLER_33_279
*1597 FILLER_33_281
*1598 FILLER_33_293
*1599 FILLER_33_3
*1600 FILLER_33_305
*1601 FILLER_33_317
*1602 FILLER_33_329
*1603 FILLER_33_335
*1604 FILLER_33_337
*1605 FILLER_33_349