*SPEF "ieee 1481-1999"
*DESIGN "wb_interface"
*DATE "11:11:11 Fri 11 11, 1111"
*VENDOR "OpenRCX"
*PROGRAM "Parallel Extraction"
*VERSION "1.0"
*DESIGN_FLOW "NAME_SCOPE LOCAL" "PIN_CAP NONE"
*DIVIDER /
*DELIMITER :
*BUS_DELIMITER []
*T_UNIT 1 NS
*C_UNIT 1 PF
*R_UNIT 1 OHM
*L_UNIT 1 HENRY

*NAME_MAP
*1 addr0[0]
*2 addr0[1]
*3 addr0[2]
*4 addr0[3]
*5 addr0[4]
*6 addr0[5]
*7 addr0[6]
*8 addr0[7]
*9 addr0[8]
*10 clk0
*11 csb0
*12 din0[0]
*13 din0[10]
*14 din0[11]
*15 din0[12]
*16 din0[13]
*17 din0[14]
*18 din0[15]
*19 din0[16]
*20 din0[17]
*21 din0[18]
*22 din0[19]
*23 din0[1]
*24 din0[20]
*25 din0[21]
*26 din0[22]
*27 din0[23]
*28 din0[24]
*29 din0[25]
*30 din0[26]
*31 din0[27]
*32 din0[28]
*33 din0[29]
*34 din0[2]
*35 din0[30]
*36 din0[31]
*37 din0[3]
*38 din0[4]
*39 din0[5]
*40 din0[6]
*41 din0[7]
*42 din0[8]
*43 din0[9]
*44 dmem_addrb[0]
*45 dmem_addrb[1]
*46 dmem_addrb[2]
*47 dmem_addrb[3]
*48 dmem_addrb[4]
*49 dmem_addrb[5]
*50 dmem_addrb[6]
*51 dmem_addrb[7]
*52 dmem_addrb_o[0]
*53 dmem_addrb_o[1]
*54 dmem_addrb_o[2]
*55 dmem_addrb_o[3]
*56 dmem_addrb_o[4]
*57 dmem_addrb_o[5]
*58 dmem_addrb_o[6]
*59 dmem_addrb_o[7]
*60 dmem_doutb[0]
*61 dmem_doutb[10]
*62 dmem_doutb[11]
*63 dmem_doutb[12]
*64 dmem_doutb[13]
*65 dmem_doutb[14]
*66 dmem_doutb[15]
*67 dmem_doutb[16]
*68 dmem_doutb[17]
*69 dmem_doutb[18]
*70 dmem_doutb[19]
*71 dmem_doutb[1]
*72 dmem_doutb[20]
*73 dmem_doutb[21]
*74 dmem_doutb[22]
*75 dmem_doutb[23]
*76 dmem_doutb[24]
*77 dmem_doutb[25]
*78 dmem_doutb[26]
*79 dmem_doutb[27]
*80 dmem_doutb[28]
*81 dmem_doutb[29]
*82 dmem_doutb[2]
*83 dmem_doutb[30]
*84 dmem_doutb[31]
*85 dmem_doutb[3]
*86 dmem_doutb[4]
*87 dmem_doutb[5]
*88 dmem_doutb[6]
*89 dmem_doutb[7]
*90 dmem_doutb[8]
*91 dmem_doutb[9]
*92 dmem_enb
*93 net203
*94 processor_reset
*97 wb_clk_i
*98 wb_rst_i
*99 wbs_ack_o
*100 wbs_adr_i[0]
*101 wbs_adr_i[10]
*102 wbs_adr_i[11]
*103 wbs_adr_i[12]
*104 wbs_adr_i[13]
*105 wbs_adr_i[14]
*106 wbs_adr_i[15]
*107 wbs_adr_i[16]
*108 wbs_adr_i[17]
*109 wbs_adr_i[18]
*110 wbs_adr_i[19]
*111 wbs_adr_i[1]
*112 wbs_adr_i[20]
*113 wbs_adr_i[21]
*114 wbs_adr_i[22]
*115 wbs_adr_i[23]
*116 wbs_adr_i[24]
*117 wbs_adr_i[25]
*118 wbs_adr_i[26]
*119 wbs_adr_i[27]
*120 wbs_adr_i[28]
*121 wbs_adr_i[29]
*122 wbs_adr_i[2]
*123 wbs_adr_i[30]
*124 wbs_adr_i[31]
*125 wbs_adr_i[3]
*126 wbs_adr_i[4]
*127 wbs_adr_i[5]
*128 wbs_adr_i[6]
*129 wbs_adr_i[7]
*130 wbs_adr_i[8]
*131 wbs_adr_i[9]
*132 wbs_cyc_i
*133 wbs_dat_i[0]
*134 wbs_dat_i[10]
*135 wbs_dat_i[11]
*136 wbs_dat_i[12]
*137 wbs_dat_i[13]
*138 wbs_dat_i[14]
*139 wbs_dat_i[15]
*140 wbs_dat_i[16]
*141 wbs_dat_i[17]
*142 wbs_dat_i[18]
*143 wbs_dat_i[19]
*144 wbs_dat_i[1]
*145 wbs_dat_i[20]
*146 wbs_dat_i[21]
*147 wbs_dat_i[22]
*148 wbs_dat_i[23]
*149 wbs_dat_i[24]
*150 wbs_dat_i[25]
*151 wbs_dat_i[26]
*152 wbs_dat_i[27]
*153 wbs_dat_i[28]
*154 wbs_dat_i[29]
*155 wbs_dat_i[2]
*156 wbs_dat_i[30]
*157 wbs_dat_i[31]
*158 wbs_dat_i[3]
*159 wbs_dat_i[4]
*160 wbs_dat_i[5]
*161 wbs_dat_i[6]
*162 wbs_dat_i[7]
*163 wbs_dat_i[8]
*164 wbs_dat_i[9]
*165 wbs_dat_o[0]
*166 wbs_dat_o[10]
*167 wbs_dat_o[11]
*168 wbs_dat_o[12]
*169 wbs_dat_o[13]
*170 wbs_dat_o[14]
*171 wbs_dat_o[15]
*172 wbs_dat_o[16]
*173 wbs_dat_o[17]
*174 wbs_dat_o[18]
*175 wbs_dat_o[19]
*176 wbs_dat_o[1]
*177 wbs_dat_o[20]
*178 wbs_dat_o[21]
*179 wbs_dat_o[22]
*180 wbs_dat_o[23]
*181 wbs_dat_o[24]
*182 wbs_dat_o[25]
*183 wbs_dat_o[26]
*184 wbs_dat_o[27]
*185 wbs_dat_o[28]
*186 wbs_dat_o[29]
*187 wbs_dat_o[2]
*188 wbs_dat_o[30]
*189 wbs_dat_o[31]
*190 wbs_dat_o[3]
*191 wbs_dat_o[4]
*192 wbs_dat_o[5]
*193 wbs_dat_o[6]
*194 wbs_dat_o[7]
*195 wbs_dat_o[8]
*196 wbs_dat_o[9]
*197 wbs_sel_i[0]
*198 wbs_sel_i[1]
*199 wbs_sel_i[2]
*200 wbs_sel_i[3]
*201 wbs_stb_i
*202 wbs_we_i
*203 web0
*204 wmask0[0]
*205 wmask0[1]
*206 wmask0[2]
*207 wmask0[3]
*208 L0_ready_a1
*209 _000_
*210 _001_
*211 _002_
*212 _003_
*213 _004_
*214 _005_
*215 _006_
*216 _007_
*217 _008_
*218 _009_
*219 _010_
*220 _011_
*221 _012_
*222 _013_
*223 _014_
*224 _015_
*225 _016_
*226 _017_
*227 _018_
*228 _019_
*229 _020_
*230 _021_
*231 clknet_0_wb_clk_i
*232 clknet_1_0__leaf_wb_clk_i
*233 clknet_1_1__leaf_wb_clk_i
*234 net1
*235 net10
*236 net100
*237 net101
*238 net102
*239 net103
*240 net104
*241 net105
*242 net106
*243 net107
*244 net108
*245 net109
*246 net11
*247 net110
*248 net111
*249 net112
*250 net113
*251 net114
*252 net115
*253 net116
*254 net117
*255 net118
*256 net119
*257 net12
*258 net120
*259 net121
*260 net122
*261 net123
*262 net124
*263 net125
*264 net126
*265 net127
*266 net128
*267 net129
*268 net13
*269 net130
*270 net131
*271 net132
*272 net133
*273 net134
*274 net135
*275 net136
*276 net137
*277 net138
*278 net139
*279 net14
*280 net140
*281 net141
*282 net142
*283 net143
*284 net144
*285 net145
*286 net146
*287 net147
*288 net148
*289 net149
*290 net15
*291 net150
*292 net151
*293 net152
*294 net153
*295 net154
*296 net155
*297 net156
*298 net157
*299 net158
*300 net159
*301 net16
*302 net160
*303 net161
*304 net162
*305 net163
*306 net164
*307 net165
*308 net166
*309 net167
*310 net168
*311 net169
*312 net17
*313 net170
*314 net171
*315 net172
*316 net173
*317 net174
*318 net175
*319 net176
*320 net177
*321 net178
*322 net179
*323 net18
*324 net180
*325 net181
*326 net182
*327 net183
*328 net184
*329 net185
*330 net186
*331 net187
*332 net188
*333 net189
*334 net19
*335 net190
*336 net191
*337 net192
*338 net193
*339 net194
*340 net195
*341 net196
*342 net197
*343 net198
*344 net199
*345 net2
*346 net20
*347 net200
*348 net201
*349 net202
*350 net21
*351 net22
*352 net23
*353 net24
*354 net25
*355 net26
*356 net27
*357 net28
*358 net29
*359 net3
*360 net30
*361 net31
*362 net32
*363 net33
*364 net34
*365 net35
*366 net36
*367 net37
*368 net38
*369 net39
*370 net4
*371 net40
*372 net41
*373 net42
*374 net43
*375 net44
*376 net45
*377 net46
*378 net47
*379 net48
*380 net49
*381 net5
*382 net50
*383 net51
*384 net52
*385 net53
*386 net54
*387 net55
*388 net56
*389 net57
*390 net58
*391 net59
*392 net6
*393 net60
*394 net61
*395 net62
*396 net63
*397 net64
*398 net65
*399 net66
*400 net67
*401 net68
*402 net69
*403 net7
*404 net70
*405 net71
*406 net72
*407 net73
*408 net74
*409 net75
*410 net76
*411 net77
*412 net78
*413 net79
*414 net8
*415 net80
*416 net81
*417 net82
*418 net83
*419 net84
*420 net85
*421 net86
*422 net87
*423 net88
*424 net89
*425 net9
*426 net90
*427 net91
*428 net92
*429 net93
*430 net94
*431 net95
*432 net96
*433 net97
*434 net98
*435 net99
*436 ANTENNA__023__B
*437 ANTENNA__024__A
*438 ANTENNA__025__A1
*439 ANTENNA__025__S
*440 ANTENNA__027__A1
*441 ANTENNA__027__S
*442 ANTENNA__029__A1
*443 ANTENNA__029__S
*444 ANTENNA__031__A1
*445 ANTENNA__031__S
*446 ANTENNA__033__A1
*447 ANTENNA__033__S
*448 ANTENNA__035__A1
*449 ANTENNA__035__S
*450 ANTENNA__037__A1
*451 ANTENNA__037__S
*452 ANTENNA__039__A1
*453 ANTENNA__039__S
*454 ANTENNA__042__C
*455 ANTENNA__049__B
*456 ANTENNA__050__B
*457 ANTENNA__051__A
*458 ANTENNA__051__B
*459 ANTENNA__053__A
*460 ANTENNA__053__B
*461 ANTENNA__055__A
*462 ANTENNA__055__B
*463 ANTENNA__057__A
*464 ANTENNA__057__B
*465 ANTENNA__059__A
*466 ANTENNA__062__A
*467 ANTENNA__063__A
*468 ANTENNA__064__A
*469 ANTENNA__065__A
*470 ANTENNA__066__A
*471 ANTENNA__067__A
*472 ANTENNA__068__A
*473 ANTENNA__069__A
*474 ANTENNA__070__A
*475 ANTENNA__072__A
*476 ANTENNA__073__A
*477 ANTENNA__074__A
*478 ANTENNA__075__A
*479 ANTENNA__076__A
*480 ANTENNA__077__A
*481 ANTENNA__078__A
*482 ANTENNA__079__A
*483 ANTENNA__080__A
*484 ANTENNA__081__A
*485 ANTENNA__082__A
*486 ANTENNA__083__A
*487 ANTENNA__084__A
*488 ANTENNA__085__A
*489 ANTENNA__086__A
*490 ANTENNA__087__A
*491 ANTENNA__088__A
*492 ANTENNA__089__A
*493 ANTENNA__090__A
*494 ANTENNA__091__A
*495 ANTENNA__092__A
*496 ANTENNA__093__A
*497 ANTENNA__094__A
*498 ANTENNA__095__A
*499 ANTENNA__096__A
*500 ANTENNA__097__A
*501 ANTENNA__098__A
*502 ANTENNA__099__A
*503 ANTENNA__100__A
*504 ANTENNA__101__A
*505 ANTENNA__102__A
*506 ANTENNA__103__A
*507 ANTENNA__104__A
*508 ANTENNA__105__A
*509 ANTENNA__106__A
*510 ANTENNA__107__A
*511 ANTENNA__108__A
*512 ANTENNA__109__A
*513 ANTENNA__110__A
*514 ANTENNA__111__A
*515 ANTENNA__112__A
*516 ANTENNA__113__A
*517 ANTENNA__114__A
*518 ANTENNA__115__A
*519 ANTENNA__116__A
*520 ANTENNA__117__A
*521 ANTENNA__118__A
*522 ANTENNA__119__A
*523 ANTENNA__120__A
*524 ANTENNA__121__A
*525 ANTENNA__122__A
*526 ANTENNA__123__A
*527 ANTENNA__124__A
*528 ANTENNA__125__A
*529 ANTENNA__126__A
*530 ANTENNA__127__A
*531 ANTENNA__128__A
*532 ANTENNA__129__A
*533 ANTENNA__130__A
*534 ANTENNA__131__A
*535 ANTENNA__132__A
*536 ANTENNA__133__A
*537 ANTENNA__134__A
*538 ANTENNA__135__A
*539 ANTENNA_clkbuf_0_wb_clk_i_A
*540 ANTENNA_input100_A
*541 ANTENNA_input101_A
*542 ANTENNA_input102_A
*543 ANTENNA_input103_A
*544 ANTENNA_input104_A
*545 ANTENNA_input105_A
*546 ANTENNA_input106_A
*547 ANTENNA_input107_A
*548 ANTENNA_input108_A
*549 ANTENNA_input109_A
*550 ANTENNA_input10_A
*551 ANTENNA_input110_A
*552 ANTENNA_input111_A
*553 ANTENNA_input112_A
*554 ANTENNA_input11_A
*555 ANTENNA_input12_A
*556 ANTENNA_input13_A
*557 ANTENNA_input14_A
*558 ANTENNA_input15_A
*559 ANTENNA_input16_A
*560 ANTENNA_input17_A
*561 ANTENNA_input18_A
*562 ANTENNA_input19_A
*563 ANTENNA_input1_A
*564 ANTENNA_input20_A
*565 ANTENNA_input21_A
*566 ANTENNA_input22_A
*567 ANTENNA_input23_A
*568 ANTENNA_input24_A
*569 ANTENNA_input25_A
*570 ANTENNA_input26_A
*571 ANTENNA_input27_A
*572 ANTENNA_input28_A
*573 ANTENNA_input29_A
*574 ANTENNA_input2_A
*575 ANTENNA_input30_A
*576 ANTENNA_input31_A
*577 ANTENNA_input32_A
*578 ANTENNA_input33_A
*579 ANTENNA_input34_A
*580 ANTENNA_input35_A
*581 ANTENNA_input36_A
*582 ANTENNA_input37_A
*583 ANTENNA_input38_A
*584 ANTENNA_input39_A
*585 ANTENNA_input3_A
*586 ANTENNA_input40_A
*587 ANTENNA_input41_A
*588 ANTENNA_input42_A
*589 ANTENNA_input43_A
*590 ANTENNA_input44_A
*591 ANTENNA_input45_A
*592 ANTENNA_input46_A
*593 ANTENNA_input47_A
*594 ANTENNA_input48_A
*595 ANTENNA_input49_A
*596 ANTENNA_input4_A
*597 ANTENNA_input50_A
*598 ANTENNA_input51_A
*599 ANTENNA_input52_A
*600 ANTENNA_input53_A
*601 ANTENNA_input54_A
*602 ANTENNA_input55_A
*603 ANTENNA_input56_A
*604 ANTENNA_input57_A
*605 ANTENNA_input58_A
*606 ANTENNA_input59_A
*607 ANTENNA_input5_A
*608 ANTENNA_input60_A
*609 ANTENNA_input61_A
*610 ANTENNA_input62_A
*611 ANTENNA_input63_A
*612 ANTENNA_input64_A
*613 ANTENNA_input65_A
*614 ANTENNA_input66_A
*615 ANTENNA_input67_A
*616 ANTENNA_input68_A
*617 ANTENNA_input69_A
*618 ANTENNA_input6_A
*619 ANTENNA_input70_A
*620 ANTENNA_input71_A
*621 ANTENNA_input72_A
*622 ANTENNA_input73_A
*623 ANTENNA_input74_A
*624 ANTENNA_input75_A
*625 ANTENNA_input76_A
*626 ANTENNA_input77_A
*627 ANTENNA_input78_A
*628 ANTENNA_input79_A
*629 ANTENNA_input7_A
*630 ANTENNA_input80_A
*631 ANTENNA_input81_A
*632 ANTENNA_input82_A
*633 ANTENNA_input83_A
*634 ANTENNA_input84_A
*635 ANTENNA_input85_A
*636 ANTENNA_input86_A
*637 ANTENNA_input87_A
*638 ANTENNA_input88_A
*639 ANTENNA_input89_A
*640 ANTENNA_input8_A
*641 ANTENNA_input90_A
*642 ANTENNA_input91_A
*643 ANTENNA_input92_A
*644 ANTENNA_input93_A
*645 ANTENNA_input94_A
*646 ANTENNA_input95_A
*647 ANTENNA_input96_A
*648 ANTENNA_input97_A
*649 ANTENNA_input98_A
*650 ANTENNA_input99_A
*651 ANTENNA_input9_A
*652 ANTENNA_output113_A
*653 ANTENNA_output114_A
*654 ANTENNA_output115_A
*655 ANTENNA_output116_A
*656 ANTENNA_output117_A
*657 ANTENNA_output118_A
*658 ANTENNA_output119_A
*659 ANTENNA_output120_A
*660 ANTENNA_output121_A
*661 ANTENNA_output122_A
*662 ANTENNA_output123_A
*663 ANTENNA_output124_A
*664 ANTENNA_output125_A
*665 ANTENNA_output126_A
*666 ANTENNA_output127_A
*667 ANTENNA_output128_A
*668 ANTENNA_output129_A
*669 ANTENNA_output130_A
*670 ANTENNA_output131_A
*671 ANTENNA_output132_A
*672 ANTENNA_output133_A
*673 ANTENNA_output134_A
*674 ANTENNA_output135_A
*675 ANTENNA_output136_A
*676 ANTENNA_output137_A
*677 ANTENNA_output138_A
*678 ANTENNA_output139_A
*679 ANTENNA_output140_A
*680 ANTENNA_output141_A
*681 ANTENNA_output142_A
*682 ANTENNA_output143_A
*683 ANTENNA_output144_A
*684 ANTENNA_output145_A
*685 ANTENNA_output146_A
*686 ANTENNA_output147_A
*687 ANTENNA_output148_A
*688 ANTENNA_output149_A
*689 ANTENNA_output150_A
*690 ANTENNA_output151_A
*691 ANTENNA_output152_A
*692 ANTENNA_output153_A
*693 ANTENNA_output154_A
*694 ANTENNA_output155_A
*695 ANTENNA_output164_A
*696 ANTENNA_output166_A
*697 ANTENNA_output167_A
*698 ANTENNA_output168_A
*699 ANTENNA_output169_A
*700 ANTENNA_output170_A
*701 ANTENNA_output171_A
*702 ANTENNA_output172_A
*703 ANTENNA_output173_A
*704 ANTENNA_output174_A
*705 ANTENNA_output175_A
*706 ANTENNA_output176_A
*707 ANTENNA_output177_A
*708 ANTENNA_output178_A
*709 ANTENNA_output179_A
*710 ANTENNA_output180_A
*711 ANTENNA_output181_A
*712 ANTENNA_output182_A
*713 ANTENNA_output183_A
*714 ANTENNA_output184_A
*715 ANTENNA_output185_A
*716 ANTENNA_output186_A
*717 ANTENNA_output187_A
*718 ANTENNA_output188_A
*719 ANTENNA_output189_A
*720 ANTENNA_output190_A
*721 ANTENNA_output191_A
*722 ANTENNA_output192_A
*723 ANTENNA_output193_A
*724 ANTENNA_output194_A
*725 ANTENNA_output195_A
*726 ANTENNA_output196_A
*727 ANTENNA_output197_A
*728 ANTENNA_output198_A
*729 ANTENNA_output199_A
*730 ANTENNA_output200_A
*731 ANTENNA_output201_A
*732 ANTENNA_output202_A
*733 FILLER_0_1005
*734 FILLER_0_1009
*735 FILLER_0_1021
*736 FILLER_0_1033
*737 FILLER_0_1037
*738 FILLER_0_1049
*739 FILLER_0_1057
*740 FILLER_0_109
*741 FILLER_0_113
*742 FILLER_0_125
*743 FILLER_0_137
*744 FILLER_0_141
*745 FILLER_0_15
*746 FILLER_0_153
*747 FILLER_0_165
*748 FILLER_0_169
*749 FILLER_0_181
*750 FILLER_0_193
*751 FILLER_0_197
*752 FILLER_0_209
*753 FILLER_0_221
*754 FILLER_0_225
*755 FILLER_0_237
*756 FILLER_0_249
*757 FILLER_0_253
*758 FILLER_0_265
*759 FILLER_0_27
*760 FILLER_0_277
*761 FILLER_0_281
*762 FILLER_0_29
*763 FILLER_0_293
*764 FILLER_0_3
*765 FILLER_0_305
*766 FILLER_0_309
*767 FILLER_0_321
*768 FILLER_0_333
*769 FILLER_0_337
*770 FILLER_0_349
*771 FILLER_0_361
*772 FILLER_0_365
*773 FILLER_0_377
*774 FILLER_0_389
*775 FILLER_0_393
*776 FILLER_0_405
*777 FILLER_0_41
*778 FILLER_0_417
*779 FILLER_0_421
*780 FILLER_0_433
*781 FILLER_0_445
*782 FILLER_0_449
*783 FILLER_0_461
*784 FILLER_0_473
*785 FILLER_0_477
*786 FILLER_0_489
*787 FILLER_0_501
*788 FILLER_0_505
*789 FILLER_0_517
*790 FILLER_0_529
*791 FILLER_0_53
*792 FILLER_0_533
*793 FILLER_0_545
*794 FILLER_0_557
*795 FILLER_0_561
*796 FILLER_0_57
*797 FILLER_0_573
*798 FILLER_0_585
*799 FILLER_0_589
*800 FILLER_0_601
*801 FILLER_0_613
*802 FILLER_0_617
*803 FILLER_0_629
*804 FILLER_0_641
*805 FILLER_0_645
*806 FILLER_0_657
*807 FILLER_0_669
*808 FILLER_0_673
*809 FILLER_0_685
*810 FILLER_0_69
*811 FILLER_0_697
*812 FILLER_0_701
*813 FILLER_0_713
*814 FILLER_0_725
*815 FILLER_0_729
*816 FILLER_0_741
*817 FILLER_0_753
*818 FILLER_0_757
*819 FILLER_0_769
*820 FILLER_0_781
*821 FILLER_0_785
*822 FILLER_0_797
*823 FILLER_0_809
*824 FILLER_0_81
*825 FILLER_0_813
*826 FILLER_0_825
*827 FILLER_0_837
*828 FILLER_0_841
*829 FILLER_0_85
*830 FILLER_0_853
*831 FILLER_0_865
*832 FILLER_0_869
*833 FILLER_0_881
*834 FILLER_0_893
*835 FILLER_0_897
*836 FILLER_0_909
*837 FILLER_0_921
*838 FILLER_0_925
*839 FILLER_0_937
*840 FILLER_0_949
*841 FILLER_0_953
*842 FILLER_0_965
*843 FILLER_0_97
*844 FILLER_0_977
*845 FILLER_0_981
*846 FILLER_0_993
*847 FILLER_100_1005
*848 FILLER_100_1017
*849 FILLER_100_1029
*850 FILLER_100_1035
*851 FILLER_100_1037
*852 FILLER_100_1047
*853 FILLER_100_1055
*854 FILLER_100_109
*855 FILLER_100_121
*856 FILLER_100_133
*857 FILLER_100_139
*858 FILLER_100_141
*859 FILLER_100_15
*860 FILLER_100_153
*861 FILLER_100_165
*862 FILLER_100_177
*863 FILLER_100_189
*864 FILLER_100_195
*865 FILLER_100_197
*866 FILLER_100_209
*867 FILLER_100_221
*868 FILLER_100_233
*869 FILLER_100_245
*870 FILLER_100_251
*871 FILLER_100_253
*872 FILLER_100_265
*873 FILLER_100_27
*874 FILLER_100_277
*875 FILLER_100_289
*876 FILLER_100_29
*877 FILLER_100_3
*878 FILLER_100_301
*879 FILLER_100_307
*880 FILLER_100_309
*881 FILLER_100_321
*882 FILLER_100_333
*883 FILLER_100_345
*884 FILLER_100_357
*885 FILLER_100_363
*886 FILLER_100_365
*887 FILLER_100_377
*888 FILLER_100_389
*889 FILLER_100_401
*890 FILLER_100_41
*891 FILLER_100_413
*892 FILLER_100_419
*893 FILLER_100_421
*894 FILLER_100_433
*895 FILLER_100_445
*896 FILLER_100_457
*897 FILLER_100_469
*898 FILLER_100_475
*899 FILLER_100_477
*900 FILLER_100_489
*901 FILLER_100_501
*902 FILLER_100_513
*903 FILLER_100_521
*904 FILLER_100_528
*905 FILLER_100_53
*906 FILLER_100_533
*907 FILLER_100_541
*908 FILLER_100_553
*909 FILLER_100_565
*910 FILLER_100_577
*911 FILLER_100_585
*912 FILLER_100_589
*913 FILLER_100_601
*914 FILLER_100_613
*915 FILLER_100_625
*916 FILLER_100_637
*917 FILLER_100_643
*918 FILLER_100_645
*919 FILLER_100_65
*920 FILLER_100_657
*921 FILLER_100_669
*922 FILLER_100_681
*923 FILLER_100_693
*924 FILLER_100_699
*925 FILLER_100_701
*926 FILLER_100_713
*927 FILLER_100_725
*928 FILLER_100_737
*929 FILLER_100_749
*930 FILLER_100_755
*931 FILLER_100_757
*932 FILLER_100_769
*933 FILLER_100_77
*934 FILLER_100_781
*935 FILLER_100_793
*936 FILLER_100_805
*937 FILLER_100_811
*938 FILLER_100_813
*939 FILLER_100_825
*940 FILLER_100_83
*941 FILLER_100_837
*942 FILLER_100_849
*943 FILLER_100_85
*944 FILLER_100_861
*945 FILLER_100_867
*946 FILLER_100_869
*947 FILLER_100_881
*948 FILLER_100_893
*949 FILLER_100_905
*950 FILLER_100_917
*951 FILLER_100_923
*952 FILLER_100_925
*953 FILLER_100_937
*954 FILLER_100_949
*955 FILLER_100_961
*956 FILLER_100_97
*957 FILLER_100_973
*958 FILLER_100_979
*959 FILLER_100_981
*960 FILLER_100_993
*961 FILLER_101_1001
*962 FILLER_101_1007
*963 FILLER_101_1009
*964 FILLER_101_1021
*965 FILLER_101_1033
*966 FILLER_101_1045
*967 FILLER_101_105
*968 FILLER_101_1057
*969 FILLER_101_111
*970 FILLER_101_113
*971 FILLER_101_12
*972 FILLER_101_125
*973 FILLER_101_137
*974 FILLER_101_149
*975 FILLER_101_161
*976 FILLER_101_167
*977 FILLER_101_169
*978 FILLER_101_181
*979 FILLER_101_193
*980 FILLER_101_205
*981 FILLER_101_217
*982 FILLER_101_223
*983 FILLER_101_225
*984 FILLER_101_237
*985 FILLER_101_24
*986 FILLER_101_249
*987 FILLER_101_261
*988 FILLER_101_273
*989 FILLER_101_279
*990 FILLER_101_281
*991 FILLER_101_293
*992 FILLER_101_305
*993 FILLER_101_317
*994 FILLER_101_329
*995 FILLER_101_335
*996 FILLER_101_337
*997 FILLER_101_349
*998 FILLER_101_36
*999 FILLER_101_361
*1000 FILLER_101_373
*1001 FILLER_101_385
*1002 FILLER_101_391
*1003 FILLER_101_393
*1004 FILLER_101_405
*1005 FILLER_101_417
*1006 FILLER_101_429
*1007 FILLER_101_441
*1008 FILLER_101_447
*1009 FILLER_101_449
*1010 FILLER_101_461
*1011 FILLER_101_473
*1012 FILLER_101_48
*1013 FILLER_101_485
*1014 FILLER_101_497
*1015 FILLER_101_503
*1016 FILLER_101_505
*1017 FILLER_101_517
*1018 FILLER_101_529
*1019 FILLER_101_541
*1020 FILLER_101_553
*1021 FILLER_101_559
*1022 FILLER_101_561
*1023 FILLER_101_57
*1024 FILLER_101_573
*1025 FILLER_101_585
*1026 FILLER_101_597
*1027 FILLER_101_6
*1028 FILLER_101_609
*1029 FILLER_101_615
*1030 FILLER_101_617
*1031 FILLER_101_629
*1032 FILLER_101_641
*1033 FILLER_101_653
*1034 FILLER_101_665
*1035 FILLER_101_671
*1036 FILLER_101_673
*1037 FILLER_101_685
*1038 FILLER_101_69
*1039 FILLER_101_697
*1040 FILLER_101_709
*1041 FILLER_101_721
*1042 FILLER_101_727
*1043 FILLER_101_729
*1044 FILLER_101_741
*1045 FILLER_101_753
*1046 FILLER_101_765
*1047 FILLER_101_777
*1048 FILLER_101_783
*1049 FILLER_101_785
*1050 FILLER_101_797
*1051 FILLER_101_809
*1052 FILLER_101_81
*1053 FILLER_101_821
*1054 FILLER_101_833
*1055 FILLER_101_839
*1056 FILLER_101_841
*1057 FILLER_101_853
*1058 FILLER_101_865
*1059 FILLER_101_877
*1060 FILLER_101_889
*1061 FILLER_101_895
*1062 FILLER_101_897
*1063 FILLER_101_909
*1064 FILLER_101_921
*1065 FILLER_101_93
*1066 FILLER_101_933
*1067 FILLER_101_945
*1068 FILLER_101_951
*1069 FILLER_101_953
*1070 FILLER_101_965
*1071 FILLER_101_977
*1072 FILLER_101_989
*1073 FILLER_102_1005
*1074 FILLER_102_1017
*1075 FILLER_102_1029
*1076 FILLER_102_1035
*1077 FILLER_102_1037
*1078 FILLER_102_1049
*1079 FILLER_102_1057
*1080 FILLER_102_109
*1081 FILLER_102_11
*1082 FILLER_102_121
*1083 FILLER_102_133
*1084 FILLER_102_139
*1085 FILLER_102_141
*1086 FILLER_102_153
*1087 FILLER_102_165
*1088 FILLER_102_177
*1089 FILLER_102_189
*1090 FILLER_102_195
*1091 FILLER_102_197
*1092 FILLER_102_209
*1093 FILLER_102_221
*1094 FILLER_102_23
*1095 FILLER_102_233
*1096 FILLER_102_245
*1097 FILLER_102_251
*1098 FILLER_102_253
*1099 FILLER_102_265
*1100 FILLER_102_27
*1101 FILLER_102_277
*1102 FILLER_102_289
*1103 FILLER_102_29
*1104 FILLER_102_3
*1105 FILLER_102_301
*1106 FILLER_102_307
*1107 FILLER_102_309
*1108 FILLER_102_321
*1109 FILLER_102_333
*1110 FILLER_102_345
*1111 FILLER_102_357
*1112 FILLER_102_363
*1113 FILLER_102_365
*1114 FILLER_102_377
*1115 FILLER_102_389
*1116 FILLER_102_401
*1117 FILLER_102_41
*1118 FILLER_102_413
*1119 FILLER_102_419
*1120 FILLER_102_421
*1121 FILLER_102_433
*1122 FILLER_102_445
*1123 FILLER_102_457
*1124 FILLER_102_469
*1125 FILLER_102_475
*1126 FILLER_102_477
*1127 FILLER_102_489
*1128 FILLER_102_501
*1129 FILLER_102_513
*1130 FILLER_102_525
*1131 FILLER_102_53
*1132 FILLER_102_531
*1133 FILLER_102_533
*1134 FILLER_102_545
*1135 FILLER_102_557
*1136 FILLER_102_569
*1137 FILLER_102_581
*1138 FILLER_102_587
*1139 FILLER_102_589
*1140 FILLER_102_601
*1141 FILLER_102_613
*1142 FILLER_102_625
*1143 FILLER_102_637
*1144 FILLER_102_643
*1145 FILLER_102_645
*1146 FILLER_102_65
*1147 FILLER_102_657
*1148 FILLER_102_669
*1149 FILLER_102_681
*1150 FILLER_102_693
*1151 FILLER_102_699
*1152 FILLER_102_701
*1153 FILLER_102_713
*1154 FILLER_102_725
*1155 FILLER_102_737
*1156 FILLER_102_749
*1157 FILLER_102_755
*1158 FILLER_102_757
*1159 FILLER_102_769
*1160 FILLER_102_77
*1161 FILLER_102_781
*1162 FILLER_102_793
*1163 FILLER_102_805
*1164 FILLER_102_811
*1165 FILLER_102_813
*1166 FILLER_102_825
*1167 FILLER_102_83
*1168 FILLER_102_837
*1169 FILLER_102_849
*1170 FILLER_102_85
*1171 FILLER_102_861
*1172 FILLER_102_867
*1173 FILLER_102_869
*1174 FILLER_102_881
*1175 FILLER_102_893
*1176 FILLER_102_905
*1177 FILLER_102_917
*1178 FILLER_102_923
*1179 FILLER_102_925
*1180 FILLER_102_937
*1181 FILLER_102_949
*1182 FILLER_102_961
*1183 FILLER_102_97
*1184 FILLER_102_973
*1185 FILLER_102_979
*1186 FILLER_102_981
*1187 FILLER_102_993
*1188 FILLER_103_1001
*1189 FILLER_103_1007
*1190 FILLER_103_1009
*1191 FILLER_103_1021
*1192 FILLER_103_1033
*1193 FILLER_103_1045
*1194 FILLER_103_105
*1195 FILLER_103_1057
*1196 FILLER_103_111
*1197 FILLER_103_113
*1198 FILLER_103_125
*1199 FILLER_103_137
*1200 FILLER_103_149
*1201 FILLER_103_161
*1202 FILLER_103_167
*1203 FILLER_103_169
*1204 FILLER_103_181
*1205 FILLER_103_19
*1206 FILLER_103_193
*1207 FILLER_103_205
*1208 FILLER_103_217
*1209 FILLER_103_223
*1210 FILLER_103_225
*1211 FILLER_103_237
*1212 FILLER_103_249
*1213 FILLER_103_261
*1214 FILLER_103_273
*1215 FILLER_103_279
*1216 FILLER_103_281
*1217 FILLER_103_293
*1218 FILLER_103_3
*1219 FILLER_103_305
*1220 FILLER_103_31
*1221 FILLER_103_317
*1222 FILLER_103_329
*1223 FILLER_103_335
*1224 FILLER_103_337
*1225 FILLER_103_349
*1226 FILLER_103_361
*1227 FILLER_103_373
*1228 FILLER_103_385
*1229 FILLER_103_391
*1230 FILLER_103_393
*1231 FILLER_103_405
*1232 FILLER_103_417
*1233 FILLER_103_429
*1234 FILLER_103_43
*1235 FILLER_103_441
*1236 FILLER_103_447
*1237 FILLER_103_449
*1238 FILLER_103_461
*1239 FILLER_103_473
*1240 FILLER_103_485
*1241 FILLER_103_497
*1242 FILLER_103_503
*1243 FILLER_103_505
*1244 FILLER_103_517
*1245 FILLER_103_529
*1246 FILLER_103_537
*1247 FILLER_103_549
*1248 FILLER_103_55
*1249 FILLER_103_557
*1250 FILLER_103_561
*1251 FILLER_103_57
*1252 FILLER_103_573
*1253 FILLER_103_585
*1254 FILLER_103_597
*1255 FILLER_103_609
*1256 FILLER_103_615
*1257 FILLER_103_617
*1258 FILLER_103_629
*1259 FILLER_103_641
*1260 FILLER_103_653
*1261 FILLER_103_665
*1262 FILLER_103_671
*1263 FILLER_103_673
*1264 FILLER_103_685
*1265 FILLER_103_69
*1266 FILLER_103_697
*1267 FILLER_103_7
*1268 FILLER_103_709
*1269 FILLER_103_721
*1270 FILLER_103_727
*1271 FILLER_103_729
*1272 FILLER_103_741
*1273 FILLER_103_753
*1274 FILLER_103_765
*1275 FILLER_103_777
*1276 FILLER_103_783
*1277 FILLER_103_785
*1278 FILLER_103_797
*1279 FILLER_103_809
*1280 FILLER_103_81
*1281 FILLER_103_821
*1282 FILLER_103_833
*1283 FILLER_103_839
*1284 FILLER_103_841
*1285 FILLER_103_853
*1286 FILLER_103_865
*1287 FILLER_103_877
*1288 FILLER_103_889
*1289 FILLER_103_895
*1290 FILLER_103_897
*1291 FILLER_103_909
*1292 FILLER_103_921
*1293 FILLER_103_93
*1294 FILLER_103_933
*1295 FILLER_103_945
*1296 FILLER_103_951
*1297 FILLER_103_953
*1298 FILLER_103_965
*1299 FILLER_103_977
*1300 FILLER_103_989
*1301 FILLER_104_1005
*1302 FILLER_104_1017
*1303 FILLER_104_1029
*1304 FILLER_104_1035
*1305 FILLER_104_1037
*1306 FILLER_104_1047
*1307 FILLER_104_1055
*1308 FILLER_104_109
*1309 FILLER_104_121
*1310 FILLER_104_13
*1311 FILLER_104_133
*1312 FILLER_104_139
*1313 FILLER_104_141
*1314 FILLER_104_153
*1315 FILLER_104_165
*1316 FILLER_104_177
*1317 FILLER_104_189
*1318 FILLER_104_195
*1319 FILLER_104_197
*1320 FILLER_104_209
*1321 FILLER_104_221
*1322 FILLER_104_233
*1323 FILLER_104_245
*1324 FILLER_104_25
*1325 FILLER_104_251
*1326 FILLER_104_253
*1327 FILLER_104_265
*1328 FILLER_104_277
*1329 FILLER_104_289
*1330 FILLER_104_29
*1331 FILLER_104_301
*1332 FILLER_104_307
*1333 FILLER_104_309
*1334 FILLER_104_321
*1335 FILLER_104_333
*1336 FILLER_104_345
*1337 FILLER_104_357
*1338 FILLER_104_363
*1339 FILLER_104_365
*1340 FILLER_104_377
*1341 FILLER_104_389
*1342 FILLER_104_401
*1343 FILLER_104_41
*1344 FILLER_104_413
*1345 FILLER_104_419
*1346 FILLER_104_421
*1347 FILLER_104_433
*1348 FILLER_104_445
*1349 FILLER_104_457
*1350 FILLER_104_469
*1351 FILLER_104_475
*1352 FILLER_104_477
*1353 FILLER_104_489
*1354 FILLER_104_501
*1355 FILLER_104_513
*1356 FILLER_104_525
*1357 FILLER_104_53
*1358 FILLER_104_531
*1359 FILLER_104_533
*1360 FILLER_104_541
*1361 FILLER_104_553
*1362 FILLER_104_565
*1363 FILLER_104_577
*1364 FILLER_104_585
*1365 FILLER_104_589
*1366 FILLER_104_601
*1367 FILLER_104_613
*1368 FILLER_104_625
*1369 FILLER_104_637
*1370 FILLER_104_643
*1371 FILLER_104_645
*1372 FILLER_104_65
*1373 FILLER_104_657
*1374 FILLER_104_669
*1375 FILLER_104_681
*1376 FILLER_104_693
*1377 FILLER_104_699
*1378 FILLER_104_7
*1379 FILLER_104_701
*1380 FILLER_104_713
*1381 FILLER_104_725
*1382 FILLER_104_737
*1383 FILLER_104_749
*1384 FILLER_104_755
*1385 FILLER_104_757
*1386 FILLER_104_769
*1387 FILLER_104_77
*1388 FILLER_104_781
*1389 FILLER_104_793
*1390 FILLER_104_805
*1391 FILLER_104_811
*1392 FILLER_104_813
*1393 FILLER_104_825
*1394 FILLER_104_83
*1395 FILLER_104_837
*1396 FILLER_104_849
*1397 FILLER_104_85
*1398 FILLER_104_861
*1399 FILLER_104_867
*1400 FILLER_104_869
*1401 FILLER_104_881
*1402 FILLER_104_893
*1403 FILLER_104_905
*1404 FILLER_104_917
*1405 FILLER_104_923
*1406 FILLER_104_925
*1407 FILLER_104_937
*1408 FILLER_104_949
*1409 FILLER_104_961
*1410 FILLER_104_97
*1411 FILLER_104_973
*1412 FILLER_104_979
*1413 FILLER_104_981
*1414 FILLER_104_993
*1415 FILLER_105_1001
*1416 FILLER_105_1007
*1417 FILLER_105_1009
*1418 FILLER_105_1021
*1419 FILLER_105_1033
*1420 FILLER_105_1045
*1421 FILLER_105_105
*1422 FILLER_105_1057
*1423 FILLER_105_111
*1424 FILLER_105_113
*1425 FILLER_105_12
*1426 FILLER_105_125
*1427 FILLER_105_137
*1428 FILLER_105_149
*1429 FILLER_105_161
*1430 FILLER_105_167
*1431 FILLER_105_169
*1432 FILLER_105_181
*1433 FILLER_105_193
*1434 FILLER_105_205
*1435 FILLER_105_217
*1436 FILLER_105_223
*1437 FILLER_105_225
*1438 FILLER_105_237
*1439 FILLER_105_24
*1440 FILLER_105_249
*1441 FILLER_105_261
*1442 FILLER_105_273
*1443 FILLER_105_279
*1444 FILLER_105_281
*1445 FILLER_105_293
*1446 FILLER_105_305
*1447 FILLER_105_317
*1448 FILLER_105_329
*1449 FILLER_105_335
*1450 FILLER_105_337
*1451 FILLER_105_349
*1452 FILLER_105_36
*1453 FILLER_105_361
*1454 FILLER_105_373
*1455 FILLER_105_385
*1456 FILLER_105_391
*1457 FILLER_105_393
*1458 FILLER_105_405
*1459 FILLER_105_417
*1460 FILLER_105_429
*1461 FILLER_105_441
*1462 FILLER_105_447
*1463 FILLER_105_449
*1464 FILLER_105_461
*1465 FILLER_105_473
*1466 FILLER_105_48
*1467 FILLER_105_485
*1468 FILLER_105_497
*1469 FILLER_105_503
*1470 FILLER_105_505
*1471 FILLER_105_517
*1472 FILLER_105_529
*1473 FILLER_105_541
*1474 FILLER_105_553
*1475 FILLER_105_559
*1476 FILLER_105_561
*1477 FILLER_105_57
*1478 FILLER_105_573
*1479 FILLER_105_585
*1480 FILLER_105_597
*1481 FILLER_105_6
*1482 FILLER_105_609
*1483 FILLER_105_615
*1484 FILLER_105_617
*1485 FILLER_105_629
*1486 FILLER_105_641
*1487 FILLER_105_653
*1488 FILLER_105_665
*1489 FILLER_105_671
*1490 FILLER_105_673
*1491 FILLER_105_685
*1492 FILLER_105_69
*1493 FILLER_105_697
*1494 FILLER_105_709
*1495 FILLER_105_721
*1496 FILLER_105_727
*1497 FILLER_105_729
*1498 FILLER_105_741
*1499 FILLER_105_753
*1500 FILLER_105_765
*1501 FILLER_105_777
*1502 FILLER_105_783
*1503 FILLER_105_785
*1504 FILLER_105_797
*1505 FILLER_105_809
*1506 FILLER_105_81
*1507 FILLER_105_821
*1508 FILLER_105_833
*1509 FILLER_105_839
*1510 FILLER_105_841
*1511 FILLER_105_853
*1512 FILLER_105_865
*1513 FILLER_105_877
*1514 FILLER_105_889
*1515 FILLER_105_895
*1516 FILLER_105_897
*1517 FILLER_105_909
*1518 FILLER_105_921
*1519 FILLER_105_93
*1520 FILLER_105_933
*1521 FILLER_105_945
*1522 FILLER_105_951
*1523 FILLER_105_953
*1524 FILLER_105_965
*1525 FILLER_105_977
*1526 FILLER_105_989
*1527 FILLER_106_1005
*1528 FILLER_106_1017
*1529 FILLER_106_1029
*1530 FILLER_106_1035
*1531 FILLER_106_1037
*1532 FILLER_106_1049
*1533 FILLER_106_1057
*1534 FILLER_106_109
*1535 FILLER_106_121
*1536 FILLER_106_133
*1537 FILLER_106_139
*1538 FILLER_106_141
*1539 FILLER_106_153
*1540 FILLER_106_165
*1541 FILLER_106_177
*1542 FILLER_106_189
*1543 FILLER_106_19
*1544 FILLER_106_195
*1545 FILLER_106_197
*1546 FILLER_106_209
*1547 FILLER_106_221
*1548 FILLER_106_233
*1549 FILLER_106_245
*1550 FILLER_106_251
*1551 FILLER_106_253
*1552 FILLER_106_265
*1553 FILLER_106_27